data_image0
_cell_length_a       11.08
_cell_length_b       7.49225
_cell_length_c       30
_cell_angle_alpha    84.6054
_cell_angle_beta     103.489
_cell_angle_gamma    126.94

_symmetry_space_group_name_H-M    "P 1"
_symmetry_int_tables_number       1

loop_
  _symmetry_equiv_pos_as_xyz
  'x, y, z'

loop_
  _atom_site_label
  _atom_site_occupancy
  _atom_site_fract_x
  _atom_site_fract_y
  _atom_site_fract_z
  _atom_site_thermal_displace_type
  _atom_site_B_iso_or_equiv
  _atom_site_type_symbol
  Cu1      1.0000 0.38408  0.49389  0.39099  Biso   1.000  Cu
  Cu2      1.0000 0.91108  0.04787  0.39899  Biso   1.000  Cu
  P1       1.0000 0.04588  0.41845  0.39095  Biso   1.000  P
  P2       1.0000 0.37674  0.92679  0.38847  Biso   1.000  P
  P3       1.0000 0.64463  0.83545  0.38485  Biso   1.000  P
  P4       1.0000 0.70894  0.37170  0.37410  Biso   1.000  P
  Cu3      1.0000 0.75559  0.28546  0.60101  Biso   1.000  Cu
  Cu4      1.0000 0.08892  0.95213  0.40337  Biso   1.000  Cu
  Cu5      1.0000 0.42226  0.61879  0.50219  Biso   1.000  Cu
  Cu6      1.0000 0.05075  0.82722  0.58863  Biso   1.000  Cu
  Cu7      1.0000 0.71742  0.16055  0.48981  Biso   1.000  Cu
  Cu8      1.0000 0.24441  0.71454  0.49781  Biso   1.000  Cu
  Cu9      1.0000 0.57774  0.38121  0.59663  Biso   1.000  Cu
  Cu10     1.0000 0.94925  0.17278  0.51019  Biso   1.000  Cu
  Cu11     1.0000 0.28258  0.83945  0.60901  Biso   1.000  Cu
  Cu12     1.0000 0.61592  0.50611  0.41137  Biso   1.000  Cu
  P5       1.0000 0.28745  0.24822  0.51023  Biso   1.000  P
  P6       1.0000 0.62079  0.91488  0.60905  Biso   1.000  P
  P7       1.0000 0.95412  0.58155  0.41141  Biso   1.000  P
  P8       1.0000 0.95659  0.73988  0.51271  Biso   1.000  P
  P9       1.0000 0.28993  0.40654  0.61153  Biso   1.000  P
  P10      1.0000 0.62326  0.07321  0.41389  Biso   1.000  P
  P11      1.0000 0.71255  0.75178  0.58859  Biso   1.000  P
  P12      1.0000 0.37921  0.08512  0.48977  Biso   1.000  P
  P13      1.0000 0.04341  0.26012  0.58611  Biso   1.000  P
  P14      1.0000 0.71007  0.59346  0.48729  Biso   1.000  P
  P15      1.0000 0.68870  0.83122  0.51633  Biso   1.000  P
  P16      1.0000 0.02203  0.49789  0.61515  Biso   1.000  P
  P17      1.0000 0.35537  0.16455  0.41751  Biso   1.000  P
  P18      1.0000 0.95773  0.96163  0.62590  Biso   1.000  P
  P19      1.0000 0.29106  0.62830  0.42826  Biso   1.000  P
  P20      1.0000 0.62439  0.29497  0.52708  Biso   1.000  P
  P21      1.0000 0.31130  0.16878  0.58249  Biso   1.000  P
  P22      1.0000 0.97797  0.50211  0.48367  Biso   1.000  P
  P23      1.0000 0.04227  0.03837  0.47292  Biso   1.000  P
  P24      1.0000 0.37561  0.70503  0.57174  Biso   1.000  P
